@<TRIPOS>MOLECULE
LIG
   78    82     1     0     0
SMALL
resp


@<TRIPOS>ATOM
      1 P       41.8880   -12.4220   -13.8830 p5      1 LIG     1.159179
      2 P1      39.3460   -14.3190    -7.7410 p5      1 LIG     0.798804
      3 P2      39.9780   -16.8390    -6.6060 p5      1 LIG     0.998875
      4 C       43.4970   -11.4960   -10.3740 c3      1 LIG     0.054545
      5 C1      36.6000   -18.6470    -2.3760 c3      1 LIG    -0.103041
      6 N       47.2550   -14.8490   -10.8170 nb      1 LIG    -0.773937
      7 N1      36.0120   -19.9440    -2.6090 nh      1 LIG     0.363428
      8 O       39.3460   -13.0500    -7.0380 oh      1 LIG    -0.444340
      9 O1      41.3030   -16.4230    -6.2750 oh      1 LIG    -0.518867
     10 O2      42.6690   -13.6360   -14.0960 oh      1 LIG    -0.596999
     11 C2      45.9660   -15.0790   -10.6860 ca      1 LIG     0.608848
     12 C3      42.5640   -12.2780   -11.2790 c3      1 LIG     0.536003
     13 C4      37.8250   -18.4400    -1.5220 c3      1 LIG     0.144788
     14 C5      36.5230   -21.1750    -2.0760 c2      1 LIG    -0.406594
     15 O3      38.2060   -14.1300    -8.6220 o       1 LIG    -0.543052
     16 O4      42.3390   -11.5810   -12.5460 os      1 LIG    -0.551908
     17 O5      37.5490   -18.5090    -0.0700 oh      1 LIG    -0.637136
     18 O6      40.1810   -17.4950    -7.8850 o       1 LIG    -0.570411
     19 O7      40.5010   -12.8510   -13.8600 oh      1 LIG    -0.634091
     20 C6      41.3120   -12.4050   -10.4690 c3      1 LIG     0.184729
     21 C7      38.3170   -17.1050    -2.0030 c3      1 LIG     0.204246
     22 C8      35.9000   -22.3880    -2.3780 ce      1 LIG    -0.129996
     23 N2      45.1070   -14.0950   -10.5770 nb      1 LIG    -0.733515
     24 O8      39.0450   -15.5080    -6.6710 os      1 LIG    -0.327893
     25 O9      40.4610   -11.2110   -10.6630 oh      1 LIG    -0.639839
     26 O10     37.4480   -16.0230    -1.4870 oh      1 LIG    -0.673601
     27 O11     42.0100   -11.6690   -15.1230 o       1 LIG    -0.728291
     28 C9      45.5050   -12.8450   -10.6160 ca      1 LIG     0.509203
     29 C10     41.8260   -12.5970    -9.0380 c3      1 LIG     0.028981
     30 C11     38.2530   -17.1760    -3.5110 c3      1 LIG     0.157290
     31 C12     34.7390   -22.4070    -3.1990 c3      1 LIG     0.260715
     32 O12     43.1920   -11.9790    -8.9930 os      1 LIG    -0.420279
     33 O13     37.0420   -18.0790    -3.7290 os      1 LIG    -0.392462
     34 C13     46.9000   -12.5700   -10.7570 ca      1 LIG    -0.066471
     35 C14     41.9100   -14.0500    -8.5880 c3      1 LIG     0.343277
     36 C15     39.5160   -17.7240    -4.1280 c3      1 LIG     0.252464
     37 C16     34.1920   -21.2090    -3.7150 c2      1 LIG    -0.122380
     38 O14     40.6660   -14.6940    -8.6600 os      1 LIG    -0.379803
     39 O15     39.3630   -17.8600    -5.5050 os      1 LIG    -0.397369
     40 C17     47.7600   -13.6330   -10.8510 ca      1 LIG     0.952753
     41 C18     34.8280   -19.9990    -3.4340 c2      1 LIG    -0.448382
     42 N3      49.1830   -13.4300   -11.0030 nv      1 LIG    -1.299074
     43 C19     36.4330   -23.7280    -1.8240 c       1 LIG     0.739294
     44 N4      47.0240   -11.1250   -10.7450 nc      1 LIG    -0.589557
     45 N5      36.3350   -24.9870    -2.5450 nt      1 LIG    -1.134052
     46 O16     36.9090   -23.7450    -0.7560 o       1 LIG    -0.513377
     47 C20     45.7930   -10.6350   -10.6110 cd      1 LIG     0.337776
     48 N6      44.9210   -11.6440   -10.5510 na      1 LIG    -0.167580
     49 H       37.1270   -17.8120     0.1720 ho      1 LIG     0.453358
     50 H1      40.7780   -10.5620   -10.2150 ho      1 LIG     0.429843
     51 H2      36.7750   -15.9320    -1.9980 ho      1 LIG     0.461317
     52 H3      43.2680   -10.5550   -10.4320 h2      1 LIG     0.109733
     53 H4      35.9040   -18.0690    -2.0270 h2      1 LIG     0.106459
     54 H5      45.6590   -15.9570   -10.6620 h5      1 LIG     0.044500
     55 H6      42.9260   -13.1600   -11.4500 h1      1 LIG    -0.013537
     56 H7      38.4830   -19.1150    -1.7510 h1      1 LIG     0.105901
     57 H8      40.8290   -13.1990   -10.7460 h1      1 LIG     0.079226
     58 H9      37.2920   -21.1680    -1.5530 h4      1 LIG     0.251058
     59 H10     39.2330   -16.9670    -1.7170 h1      1 LIG     0.059508
     60 H11     41.2450   -12.1120    -8.4320 h1      1 LIG     0.060929
     61 H12     38.0670   -16.2940    -3.8690 h1      1 LIG     0.018837
     62 H13     33.9400   -22.9160    -2.6410 hc      1 LIG    -0.041031
     63 H14     33.4350   -21.2300    -4.2550 ha      1 LIG     0.119918
     64 H15     34.4790   -19.2100    -3.7830 h4      1 LIG     0.262388
     65 H16     45.5740    -9.7320   -10.5810 h5      1 LIG     0.105302
     66 H17     42.2270   -14.0790    -7.6720 h1      1 LIG    -0.010370
     67 H18     42.5410   -14.5200    -9.1550 h1      1 LIG     0.008146
     68 H19     40.2520   -17.1190    -3.9450 h1      1 LIG    -0.069408
     69 H20     39.7090   -18.5910    -3.7410 h1      1 LIG     0.053178
     70 H21     49.5330   -13.4110   -11.7880 hn      1 LIG     0.498654
     71 H22     49.6790   -13.3280   -10.3080 hn      1 LIG     0.493111
     72 H23     36.6280   -25.7130    -2.1890 hn      1 LIG     0.495441
     73 H24     35.9650   -25.0020    -3.3140 hn      1 LIG     0.436852
     74 H25     42.3560   -14.0850   -14.8970 ho      1 LIG     0.480267
     75 H26     39.9020   -12.2620   -14.3550 ho      1 LIG     0.489141
     76 H27     41.5550   -16.1060    -5.3960 ho      1 LIG     0.444901
     77 H28     39.9420   -12.8780    -6.2950 ho      1 LIG     0.413292
     78 H29     34.9410   -23.0580    -4.0610 hc      1 LIG    -0.037813
@<TRIPOS>BOND
     1     1    10 1   
     2     1    16 1   
     3     1    19 1   
     4     1    27 2   
     5     2     8 1   
     6     2    15 2   
     7     2    24 1   
     8     2    38 1   
     9     3     9 1   
    10     3    18 2   
    11     3    24 1   
    12     3    39 1   
    13     4    12 1   
    14     4    32 1   
    15     4    48 1   
    16     4    52 1   
    17     5     7 1   
    18     5    13 1   
    19     5    33 1   
    20     5    53 1   
    21     6    11 ar  
    22     6    40 ar  
    23     7    14 1   
    24     7    41 1   
    25     8    77 1   
    26     9    76 1   
    27    10    74 1   
    28    11    23 ar  
    29    11    54 1   
    30    12    16 1   
    31    12    20 1   
    32    12    55 1   
    33    13    17 1   
    34    13    21 1   
    35    13    56 1   
    36    14    22 2   
    37    14    58 1   
    38    17    49 1   
    39    19    75 1   
    40    20    25 1   
    41    20    29 1   
    42    20    57 1   
    43    21    26 1   
    44    21    30 1   
    45    21    59 1   
    46    22    31 1   
    47    22    43 1   
    48    23    28 ar  
    49    25    50 1   
    50    26    51 1   
    51    28    34 ar  
    52    28    48 1   
    53    29    32 1   
    54    29    35 1   
    55    29    60 1   
    56    30    33 1   
    57    30    36 1   
    58    30    61 1   
    59    31    37 1   
    60    31    62 1   
    61    31    78 1   
    62    34    40 ar  
    63    34    44 1   
    64    35    38 1   
    65    35    66 1   
    66    35    67 1   
    67    36    39 1   
    68    36    68 1   
    69    36    69 1   
    70    37    41 2   
    71    37    63 1   
    72    40    42 1   
    73    41    64 1   
    74    42    70 1   
    75    42    71 1   
    76    43    45 1   
    77    43    46 2   
    78    44    47 2   
    79    45    72 1   
    80    45    73 1   
    81    47    48 1   
    82    47    65 1   
@<TRIPOS>SUBSTRUCTURE
     1 LIG         1 TEMP              0 ****  ****    0 ROOT
