@<TRIPOS>MOLECULE
LIG
  100   103     1     0     0
SMALL
bcc


@<TRIPOS>ATOM
      1 CAP         22.2630   -20.5510    -2.9590 c3         1 LIG       0.051000
      2 OAP         22.8100   -20.5990    -4.2580 oh         1 LIG      -0.374000
      3 CBP         22.2010   -19.0950    -2.5050 c3         1 LIG      -0.092000
      4 CDP         23.6030   -18.4880    -2.5630 c3         1 LIG      -0.222000
      5 CEP         21.6820   -19.0070    -1.0730 c3         1 LIG      -0.222000
      6 P1A         16.5830   -17.8770    -2.9000 p5         1 LIG       2.010000
      7 P2A         18.8630   -19.1120    -4.2060 p5         1 LIG       2.738000
      8 P3B         14.6790   -16.3220     2.4250 p5         1 LIG       1.573500
      9 S1P         31.4900   -21.9150    -0.8210 ss         1 LIG       0.870000
     10 C2P         30.9370   -20.8620     0.5600 c3         1 LIG      -0.456000
     11 C3P         29.5320   -21.2940     0.9710 c3         1 LIG      -0.010000
     12 N4P         28.6490   -21.0550    -0.1600 ns         1 LIG      -0.385000
     13 C5P         27.6620   -22.0390    -0.5390 c2         1 LIG       0.314000
     14 O5P         27.5530   -23.0610     0.0670 o          1 LIG      -0.430000
     15 C6P         26.7720   -21.7250    -1.7420 c3         1 LIG      -0.195000
     16 C7P         25.4140   -22.4170    -1.6350 c3         1 LIG      -0.032000
     17 N8P         24.4980   -21.6660    -2.4810 ns         1 LIG      -0.379000
     18 C9P         23.1600   -21.3520    -2.0330 c2         1 LIG       0.298000
     19 O9P         22.7750   -21.7000    -0.9650 o          1 LIG      -0.419000
     20 C1          31.9090   -23.5370    -0.1090 c2         1 LIG      -0.152000
     21 C1B         19.1870   -16.8270     1.7790 c3         1 LIG       0.131000
     22 N1A         21.4630   -12.3340     1.5450 n2         1 LIG      -0.275000
     23 O1A         17.2510   -16.6160    -3.3820 o          1 LIG      -0.805500
     24 C2          33.0670   -24.3310    -0.7130 c3         1 LIG      -0.170000
     25 C2A         21.1500   -13.0680     2.6150 c2         1 LIG       0.066000
     26 C2B         17.7940   -16.5320     2.2200 c3         1 LIG      -0.026000
     27 O2          31.3030   -23.9610     0.8260 o          1 LIG      -0.152000
     28 O2A         15.1530   -17.8960    -3.3700 o          1 LIG      -0.805500
     29 O2B         17.5910   -17.0940     3.5490 oh         1 LIG      -0.319000
     30 C3          32.6030   -25.7040    -1.1770 c3         1 LIG       0.070000
     31 C3B         16.9200   -17.1770     1.2400 c3         1 LIG       0.018000
     32 N3A         20.5490   -14.2520     2.5240 nu         1 LIG      -0.263000
     33 O3          32.4260   -28.4490    -1.5730 o          1 LIG      -0.214000
     34 O3A         17.3760   -19.1930    -3.4890 os         1 LIG      -1.199000
     35 O3B         15.6380   -17.5290     1.8320 os         1 LIG      -0.705000
     36 C4          32.4810   -26.6420     0.0170 c3         1 LIG      -0.064000
     37 C4A         20.2420   -14.7320     1.3480 c2         1 LIG      -0.005000
     38 C4B         17.6430   -18.4050     0.8220 c3         1 LIG       0.007000
     39 O4          31.2480   -28.7080     0.2300 o          1 LIG      -0.214000
     40 O4A         18.8380   -18.1750    -5.3730 o          1 LIG      -1.169000
     41 O4B         19.1200   -18.1750     1.0880 os         1 LIG      -0.256000
     42 C5          32.0180   -28.0100    -0.4720 c2         1 LIG       0.429000
     43 C5A         20.5520   -13.9910     0.1770 c2         1 LIG      -0.199000
     44 C5B         17.4970   -18.7500    -0.6120 c3         1 LIG       0.016000
     45 O5A         19.2820   -20.4830    -4.6970 oh         1 LIG      -0.810000
     46 O5B         16.6130   -17.9000    -1.2580 os         1 LIG      -0.760000
     47 C6          31.2490   -25.5750    -1.8580 c3         1 LIG      -0.249000
     48 C6A         21.1790   -12.7760     0.3310 c3         1 LIG       0.120000
     49 N6A         21.5190   -11.9800    -0.8370 nz         1 LIG      -0.351000
     50 O6A         19.9470   -18.5680    -3.0800 os         1 LIG      -0.734000
     51 N7A         20.0740   -14.7990    -0.9640 n2         1 LIG      -0.155000
     52 O7          33.5430   -26.2140    -2.0790 oh         1 LIG      -0.325000
     53 O7A         14.6180   -15.1830     1.4550 o          1 LIG      -0.360500
     54 C8A         19.5420   -15.9230    -0.4150 c2         1 LIG      -0.055000
     55 O8A         15.2030   -15.8080     3.7260 o          1 LIG      -0.360500
     56 N9A         19.6480   -15.8340     0.9060 na         1 LIG      -0.172000
     57 O9A         13.2930   -16.8770     2.6530 o          1 LIG      -0.360500
     58 CCP         21.2740   -18.3300    -3.4460 c3         1 LIG       0.053000
     59 HX          33.1970   -26.8380    -2.5230 ho         1 LIG       0.231000
     60 H4          28.7180   -20.3240    -0.6080 hn         1 LIG       0.273000
     61 H8          24.7590   -21.3980    -3.2550 hn         1 LIG       0.250000
     62 H10         22.6820   -21.3610    -4.5870 ho         1 LIG       0.289000
     63 H2'         17.6400   -15.5740     2.2270 h1         1 LIG       0.151000
     64 H21         33.4240   -23.8440    -1.4720 hc         1 LIG       0.161000
     65 H22         33.7620   -24.4410    -0.0460 hc         1 LIG       0.161000
     66 H1B         19.7690   -16.8860     2.5530 h2         1 LIG       0.129000
     67 H2B         17.1470   -17.8050     3.4880 ho         1 LIG       0.229000
     68 H41         33.3440   -26.7280     0.4520 hc         1 LIG       0.133500
     69 H42         31.8340   -26.2890     0.6470 hc         1 LIG       0.133500
     70 H3B         16.7920   -16.5730     0.4920 h1         1 LIG       0.158000
     71 H4B         17.3370   -19.1500     1.3630 h1         1 LIG       0.125000
     72 H61         31.2190   -24.7520    -2.3710 hc         1 LIG       0.104333
     73 H62         31.1170   -26.3270    -2.4560 hc         1 LIG       0.104333
     74 H63         30.5460   -25.5700    -1.1900 hc         1 LIG       0.104333
     75 H101        21.3710   -20.9320    -2.9640 h1         1 LIG       0.144000
     76 H121        21.4160   -18.6270    -4.3580 h1         1 LIG       0.080500
     77 H122        21.4600   -17.3800    -3.3830 h1         1 LIG       0.080500
     78 H131        23.9940   -18.6540    -3.4350 hc         1 LIG       0.084000
     79 H132        23.5450   -17.5310    -2.4150 hc         1 LIG       0.084000
     80 H133        24.1610   -18.8840    -1.8760 hc         1 LIG       0.084000
     81 H141        22.3760   -19.2880    -0.4560 hc         1 LIG       0.084000
     82 H142        20.9090   -19.5850    -0.9740 hc         1 LIG       0.084000
     83 H143        21.4280   -18.0910    -0.8780 hc         1 LIG       0.084000
     84 H2A1        21.3720   -12.7260     3.4950 h5         1 LIG       0.179000
     85 H5'1        17.1710   -19.6610    -0.6860 h1         1 LIG       0.105500
     86 H5'2        18.3650   -18.6890    -1.0410 h1         1 LIG       0.105500
     87 H2P1        31.5420   -20.9650     1.3110 h1         1 LIG       0.174000
     88 H2P2        30.9230   -19.9340     0.2770 h1         1 LIG       0.174000
     89 H3P1        29.5320   -22.2370     1.1970 h1         1 LIG       0.116000
     90 H3P2        29.2380   -20.7730     1.7340 h1         1 LIG       0.116000
     91 H61A        20.9550   -11.8990    -1.4810 hn         1 LIG       0.150500
     92 H62A        22.2840   -11.5900    -0.8840 hn         1 LIG       0.150500
     93 H6P1        27.2170   -22.0240    -2.5500 hc         1 LIG       0.122500
     94 H6P2        26.6350   -20.7660    -1.7930 hc         1 LIG       0.122500
     95 H8A1        19.1360   -16.6560    -0.9040 h5         1 LIG       0.248000
     96 H7P1        25.1070   -22.4030    -0.7150 h1         1 LIG       0.105500
     97 H7P2        25.4820   -23.3320    -1.9490 h1         1 LIG       0.105500
     98 H           20.3370   -14.7630     3.3380 hn         1 LIG       0.241000
     99 H9          18.6450   -20.7990    -5.3570 ho         1 LIG       0.257000
    100 H11         22.1770   -12.5820    -0.0030 DU         1 LIG       0.116000
@<TRIPOS>BOND
     1     1     2 1   
     2     1     3 1   
     3     1    18 1   
     4     1    75 1   
     5     2    62 1   
     6     3     4 1   
     7     3     5 1   
     8     3    58 1   
     9     4    78 1   
    10     4    79 1   
    11     4    80 1   
    12     5    81 1   
    13     5    82 1   
    14     5    83 1   
    15     6    23 1   
    16     6    28 1   
    17     6    34 1   
    18     6    46 1   
    19     7    34 1   
    20     7    40 1   
    21     7    45 1   
    22     7    50 1   
    23     8    35 1   
    24     8    53 1   
    25     8    55 1   
    26     8    57 1   
    27     9    10 1   
    28     9    20 1   
    29    10    11 1   
    30    10    87 1   
    31    10    88 1   
    32    11    12 1   
    33    11    89 1   
    34    11    90 1   
    35    12    13 1   
    36    12    60 1   
    37    13    14 1   
    38    13    15 1   
    39    15    16 1   
    40    15    93 1   
    41    15    94 1   
    42    16    17 1   
    43    16    96 1   
    44    16    97 1   
    45    17    18 1   
    46    17    61 1   
    47    18    19 1   
    48    20    24 1   
    49    20    27 1   
    50    21    26 1   
    51    21    41 1   
    52    21    56 1   
    53    21    66 1   
    54    22    25 1   
    55    22    48 1   
    56    24    30 1   
    57    24    64 1   
    58    24    65 1   
    59    25    32 1   
    60    25    84 1   
    61    26    29 1   
    62    26    31 1   
    63    26    63 1   
    64    29    67 1   
    65    30    36 1   
    66    30    47 1   
    67    30    52 1   
    68    31    35 1   
    69    31    38 1   
    70    31    70 1   
    71    32    37 1   
    72    32    98 1   
    73    33    42 1   
    74    36    42 1   
    75    36    68 1   
    76    36    69 1   
    77    37    43 1   
    78    37    56 1   
    79    38    41 1   
    80    38    44 1   
    81    38    71 1   
    82    39    42 1   
    83    43    48 1   
    84    43    51 1   
    85    44    46 1   
    86    44    85 1   
    87    44    86 1   
    88    45    99 1   
    89    47    72 1   
    90    47    73 1   
    91    47    74 1   
    92    48    49 1   
    93    48   100 1   
    94    49    91 1   
    95    49    92 1   
    96    49   100 1   
    97    50    58 1   
    98    51    54 1   
    99    52    59 1   
   100    54    56 1   
   101    54    95 1   
   102    58    76 1   
   103    58    77 1   
@<TRIPOS>SUBSTRUCTURE
     1 LIG         1 TEMP              0 ****  ****    0 ROOT
