@<TRIPOS>MOLECULE
LIG
  102   104     1     0     0
SMALL
bcc


@<TRIPOS>ATOM
      1 C           22.2630   -20.5510    -2.9590 c3         1 LIG       0.082100
      2 O           22.8100   -20.5990    -4.2580 oh         1 LIG      -0.612800
      3 C1          22.2010   -19.0950    -2.5050 c3         1 LIG      -0.062000
      4 C2          23.6030   -18.4880    -2.5630 c3         1 LIG      -0.096100
      5 C3          21.6820   -19.0070    -1.0730 c3         1 LIG      -0.096100
      6 P           16.5830   -17.8770    -2.9000 p5         1 LIG       1.827500
      7 P1          18.8630   -19.1120    -4.2060 p5         1 LIG       1.819500
      8 P2          14.6790   -16.3220     2.4250 p5         1 LIG       1.684500
      9 S           31.4900   -21.9150    -0.8210 ss         1 LIG      -0.244700
     10 C4          30.9370   -20.8620     0.5600 c3         1 LIG      -0.050300
     11 C5          29.5320   -21.2940     0.9710 c3         1 LIG       0.087000
     12 N           28.6490   -21.0550    -0.1600 ns         1 LIG      -0.565900
     13 C6          27.6620   -22.0390    -0.5390 c          1 LIG       0.663100
     14 O1          27.5530   -23.0610     0.0670 o          1 LIG      -0.609100
     15 C7          26.7720   -21.7250    -1.7420 c3         1 LIG      -0.184400
     16 C8          25.4140   -22.4170    -1.6350 c3         1 LIG       0.096000
     17 N1          24.4980   -21.6660    -2.4810 ns         1 LIG      -0.557900
     18 C9          23.1600   -21.3520    -2.0330 c          1 LIG       0.639100
     19 O2          22.7750   -21.7000    -0.9650 o          1 LIG      -0.625100
     20 C10         31.9090   -23.5370    -0.1090 c          1 LIG       0.586700
     21 C11         19.1870   -16.8270     1.7790 c3         1 LIG       0.220800
     22 N2          21.4630   -12.3340     1.5450 nb         1 LIG      -0.796000
     23 O3          17.2510   -16.6160    -3.3820 o          1 LIG      -0.805300
     24 C12         33.0670   -24.3310    -0.7130 c3         1 LIG      -0.169400
     25 C13         17.7940   -16.5320     2.2200 c3         1 LIG       0.109100
     26 O4          31.3030   -23.9610     0.8260 o          1 LIG      -0.533100
     27 O5          15.1530   -17.8960    -3.3700 oh         1 LIG      -0.814400
     28 O6          17.5910   -17.0940     3.5490 oh         1 LIG      -0.568800
     29 C14         32.6030   -25.7040    -1.1770 c3         1 LIG       0.182800
     30 C15         16.9200   -17.1770     1.2400 c3         1 LIG       0.129100
     31 N3          20.5490   -14.2520     2.5240 nb         1 LIG      -0.741000
     32 O7          32.4260   -28.4490    -1.5730 o          1 LIG      -0.574000
     33 O8          17.3760   -19.1930    -3.4890 os         1 LIG      -0.793800
     34 O9          15.6380   -17.5290     1.8320 os         1 LIG      -0.584200
     35 C16         32.4810   -26.6420     0.0170 c3         1 LIG      -0.167400
     36 C17         20.2420   -14.7320     1.3480 ca         1 LIG       0.471800
     37 C18         17.6430   -18.4050     0.8220 c3         1 LIG       0.102100
     38 O10         31.2480   -28.7080     0.2300 oh         1 LIG      -0.600100
     39 O11         18.8380   -18.1750    -5.3730 o          1 LIG      -0.833300
     40 O12         19.1200   -18.1750     1.0880 os         1 LIG      -0.411600
     41 C19         20.5520   -13.9910     0.1770 ca         1 LIG      -0.236200
     42 C20         17.4970   -18.7500    -0.6120 c3         1 LIG       0.163400
     43 O13         19.2820   -20.4830    -4.6970 oh         1 LIG      -0.803400
     44 O14         16.6130   -17.9000    -1.2580 os         1 LIG      -0.609200
     45 C21         31.2490   -25.5750    -1.8580 c3         1 LIG      -0.144100
     46 C22         21.1790   -12.7760     0.3310 ca         1 LIG       0.766200
     47 N4          21.5190   -11.9800    -0.8370 nv         1 LIG      -0.960500
     48 O15         19.9470   -18.5680    -3.0800 os         1 LIG      -0.599200
     49 N5          20.0740   -14.7990    -0.9640 nc         1 LIG      -0.537100
     50 O16         33.5430   -26.2140    -2.0790 oh         1 LIG      -0.610800
     51 O17         14.6180   -15.1830     1.4550 o          1 LIG      -0.845300
     52 C23         19.5420   -15.9230    -0.4150 cd         1 LIG       0.407700
     53 O18         15.2030   -15.8080     3.7260 oh         1 LIG      -0.762400
     54 N6          19.6480   -15.8340     0.9060 na         1 LIG      -0.291000
     55 O19         13.2930   -16.8770     2.6530 oh         1 LIG      -0.762400
     56 C24         21.2740   -18.3300    -3.4460 c3         1 LIG       0.191400
     57 H           33.1930   -26.8450    -2.5280 ho         1 LIG       0.432000
     58 H1          28.7180   -20.3240    -0.6080 hn         1 LIG       0.312500
     59 H2          24.7590   -21.3980    -3.2550 hn         1 LIG       0.327500
     60 H3          22.6810   -21.3700    -4.5910 ho         1 LIG       0.432000
     61 H4          17.6400   -15.5740     2.2270 h1         1 LIG       0.113700
     62 H5          33.4230   -23.8460    -1.4690 hc         1 LIG       0.090700
     63 H6          33.7620   -24.4410    -0.0460 hc         1 LIG       0.090700
     64 H7          19.7690   -16.8860     2.5530 h2         1 LIG       0.134700
     65 H8          17.1420   -17.8130     3.4870 ho         1 LIG       0.422000
     66 H9          33.3440   -26.7280     0.4520 hc         1 LIG       0.105200
     67 H10         31.8340   -26.2890     0.6470 hc         1 LIG       0.105200
     68 H11         16.7920   -16.5740     0.4930 h1         1 LIG       0.092700
     69 H12         17.3370   -19.1500     1.3630 h1         1 LIG       0.091700
     70 H13         31.2190   -24.7520    -2.3710 hc         1 LIG       0.061700
     71 H14         31.1170   -26.3270    -2.4560 hc         1 LIG       0.061700
     72 H15         30.5460   -25.5700    -1.1900 hc         1 LIG       0.061700
     73 H16         21.3710   -20.9320    -2.9640 h1         1 LIG       0.083700
     74 H17         21.4160   -18.6270    -4.3580 h1         1 LIG       0.056200
     75 H18         21.4600   -17.3800    -3.3830 h1         1 LIG       0.056200
     76 H19         23.9940   -18.6540    -3.4350 hc         1 LIG       0.048533
     77 H20         23.5450   -17.5310    -2.4150 hc         1 LIG       0.048533
     78 H21         24.1610   -18.8840    -1.8760 hc         1 LIG       0.048533
     79 H22         22.3760   -19.2880    -0.4560 hc         1 LIG       0.048533
     80 H23         20.9090   -19.5850    -0.9740 hc         1 LIG       0.048533
     81 H24         21.4280   -18.0920    -0.8780 hc         1 LIG       0.048533
     82 H25         21.3630   -12.7400     3.4590 h5         1 LIG       0.052100
     83 H26         17.1710   -19.6610    -0.6860 h1         1 LIG       0.071700
     84 H27         18.3650   -18.6890    -1.0410 h1         1 LIG       0.071700
     85 H28         31.5420   -20.9650     1.3110 h1         1 LIG       0.087200
     86 H29         30.9230   -19.9340     0.2770 h1         1 LIG       0.087200
     87 H30         29.1950   -20.6890     1.8170 h1         1 LIG       0.077200
     88 H31         20.9550   -11.8990    -1.4810 hn         1 LIG       0.451300
     89 H32         22.2840   -11.5900    -0.8840 hn         1 LIG       0.451300
     90 H33         27.2170   -22.0240    -2.5500 hc         1 LIG       0.075700
     91 H34         26.6350   -20.7660    -1.7930 hc         1 LIG       0.075700
     92 H35         19.1530   -16.6260    -0.8840 h5         1 LIG       0.091800
     93 H36         25.1070   -22.4030    -0.7150 h1         1 LIG       0.069200
     94 H37         25.4820   -23.3320    -1.9490 h1         1 LIG       0.069200
     95 H38         19.4980   -20.4550    -5.6470 ho         1 LIG       0.489000
     96 H39         14.8950   -17.0190    -3.7110 ho         1 LIG       0.529000
     97 H40         15.9260   -15.1550     3.6700 ho         1 LIG       0.499500
     98 H41         12.6180   -16.3080     2.2460 ho         1 LIG       0.499500
     99 C25         21.1500   -13.0680     2.6150 ca         1 LIG       0.689900
    100 H42         31.0960   -29.5340    -0.2730 ho         1 LIG       0.446000
    101 C26         32.0180   -28.0100    -0.4720 c          1 LIG       0.647100
    102 H43         29.5230   -22.3440     1.2690 h1         1 LIG       0.077200
@<TRIPOS>BOND
     1     1     2 1   
     2     1     3 1   
     3     1    18 1   
     4     1    73 1   
     5     2    60 1   
     6     3     4 1   
     7     3     5 1   
     8     3    56 1   
     9     4    76 1   
    10     4    77 1   
    11     4    78 1   
    12     5    79 1   
    13     5    80 1   
    14     5    81 1   
    15     6    23 2   
    16     6    27 1   
    17     6    33 1   
    18     6    44 1   
    19     7    33 1   
    20     7    39 2   
    21     7    43 1   
    22     7    48 1   
    23     8    34 1   
    24     8    51 2   
    25     8    53 1   
    26     8    55 1   
    27     9    10 1   
    28     9    20 1   
    29    10    11 1   
    30    10    85 1   
    31    10    86 1   
    32    11    12 1   
    33    11    87 1   
    34    11   102 1   
    35    12    13 1   
    36    12    58 1   
    37    13    14 2   
    38    13    15 1   
    39    15    16 1   
    40    15    90 1   
    41    15    91 1   
    42    16    17 1   
    43    16    93 1   
    44    16    94 1   
    45    17    18 1   
    46    17    59 1   
    47    18    19 2   
    48    20    24 1   
    49    20    26 2   
    50    21    25 1   
    51    21    40 1   
    52    21    54 1   
    53    21    64 1   
    54    22    46 ar  
    55    22    99 ar  
    56    24    29 1   
    57    24    62 1   
    58    24    63 1   
    59    25    28 1   
    60    25    30 1   
    61    25    61 1   
    62    27    96 1   
    63    28    65 1   
    64    29    35 1   
    65    29    45 1   
    66    29    50 1   
    67    30    34 1   
    68    30    37 1   
    69    30    68 1   
    70    31    36 ar  
    71    31    99 ar  
    72    32   101 2   
    73    35    66 1   
    74    35    67 1   
    75    35   101 1   
    76    36    41 ar  
    77    36    54 1   
    78    37    40 1   
    79    37    42 1   
    80    37    69 1   
    81    38   100 1   
    82    38   101 1   
    83    41    46 ar  
    84    41    49 1   
    85    42    44 1   
    86    42    83 1   
    87    42    84 1   
    88    43    95 1   
    89    45    70 1   
    90    45    71 1   
    91    45    72 1   
    92    46    47 1   
    93    47    88 1   
    94    47    89 1   
    95    48    56 1   
    96    49    52 2   
    97    50    57 1   
    98    52    54 1   
    99    52    92 1   
   100    53    97 1   
   101    55    98 1   
   102    56    74 1   
   103    56    75 1   
   104    82    99 1   
@<TRIPOS>SUBSTRUCTURE
     1 LIG         1 TEMP              0 ****  ****    0 ROOT
